gridfm_datakit/grids/pglib_opf_case10000_goc_corrected.m
%% MATPOWER Case Format : Version 2
function mpc = pglib_opf_case10000_goc
mpc.version = '2';

%%-----  Power Flow Data  -----%%
%% system MVA base
mpc.baseMVA = 100.0;
%% bus data
%    bus_i    type    Pd    Qd    Gs    Bs    area    Vm    Va    baseKV    zone    Vmax    Vmin
mpc.bus = [
	1	1	14.811	8.355	0.0	0.0	1	1.0	0.0	115.0	1	1.1	0.9				
	2	1	8.472	4.115	0.0	0.0	1	1.0	0.0	115.0	1	1.1	0.9				
	3	1	10.163	0.947	0.0	0.0	1	1.0	0.0	115.0	1	1.1	0.9				
	4	1	6.162	1.482	0.0	0.0	1	1.0	0.0	115.0	1	1.1	0.9				
	5	1	0.0	0.0	0.0	0.0	1	1.0	0.0	115.0	1	1.1	0.9				
	6	1	7.075000000000001	3.2460000000000004	0.0	0.0	1	1.0	0.0	115.0	1	1.1	0.9				
	7	1	14.144000000000002	2.528	0.0	0.0	1	1.0	0.0	115.0	1	1.1	0.9				
	8	1	17.562	1.122	0.0	0.0	1	1.0	0.0	115.0	1	1.1	0.9				
	9	1	14.415	6.329999999999999	0.0	5.04066867054	1	1.0	0.0	115.0	1	1.1	0.9				
	10	1	27.65	6.748	0.0	0.0	1	1.0	0.0	115.0	1	1.1	0.9				
	11	1	7.856000000000001	0.45999999999999996	0.0	0.0	1	1.0	0.0	115.0	1	1.1	0.9				
	12	1	0.0	0.0	0.0	-5.0997424252	1	1.0	0.0	230.0	1	1.1	0.9				
	13	1	0.0	0.0	0.0	0.0	1	1.0	0.0	115.0	1	1.1	0.9				
	14	1	15.706000000000001	4.637	0.0	0.0	1	1.0	0.0	230.0	1	1.1	0.9				
	15	1	0.0	0.0	0.0	0.0	1	1.0	0.0	230.0	1	1.1	0.9				
	16	1	0.0	0.0	0.0	0.0	1	1.0	0.0	230.0	1	1.1	0.9				
	17	1	0.0	0.0	0.0	0.0	1	1.0	0.0	115.0	1	1.1	0.9				
	18	1	23.402	1.9370000000000003	0.0	0.0	1	1.0	0.0	230.0	1	1.1	0.9				
	19	1	0.0	0.0	0.0	0.0	1	1.0	0.0	230.0	1	1.1	0.9				
	20	1	0.0	0.0	0.0	-32.4698696029	1	1.0	0.0	230.0	1	1.1	0.9				
	21	1	41.635	3.343	0.0	0.0	1	1.0	0.0	115.0	1	1.1	0.9				
	22	1	0.0	0.0	0.0	0.0	1	1.0	0.0	230.0	1	1.1	0.9				
	23	1	0.0	0.0	0.0	0.0	1	1.0	0.0	230.0	1	1.1	0.9				
	24	1	16.537	6.275	0.0	0.0	1	1.0	0.0	115.0	1	1.1	0.9				
	25	1	16.971	5.728	0.0	0.0	1	1.0	0.0	115.0	1	1.1	0.9				
	26	1	6.863999999999999	0.9740000000000001	0.0	0.0	1	1.0	0.0	115.0	1	1.1	0.9				
	27	1	0.0	0.0	0.0	-177.87890999	1	1.0	0.0	500.0	1	1.1	0.9				
	28	1	0.0	0.0	0.0	0.0	1	1.0	0.0	230.0	1	1.1	0.9				
	29	1	0.0	0.0	0.0	0.0	1	1.0	0.0	115.0	1	1.1	0.9				
	30	1	51.446000000000005	16.534	0.0	0.0	1	1.0	0.0	500.0	1	1.1	0.9				
	31	1	0.0	0.0	0.0	0.0	1	1.0	0.0	230.0	1	1.1	0.9				
	32	1	0.0	0.0	0.0	0.0	1	1.0	0.0	115.0	1	1.1	0.9				
	33	1	33.651	7.709	0.0	0.0	1	1.0	0.0	115.0	1	1.1	0.9				
	34	1	13.858999999999998	8.559	0.0	0.0	1	1.0	0.0	115.0	1	1.1	0.9				
	35	1	0.0	0.0	0.0	0.0	1	1.0	0.0	115.0	1	1.1	0.9				
	36	1	12.371	3.5159999999999996	0.0	0.0	1	1.0	0.0	115.0	1	1.1	0.9				
	37	1	0.0	0.0	0.0	0.0	1	1.0	0.0	230.0	1	1.1	0.9				
	38	1	0.0	0.0	0.0	0.0	1	1.0	0.0	115.0	1	1.1	0.9				
	39	1	26.081	13.265000000000002	0.0	0.0	1	1.0	0.0	230.0	1	1.1	0.9				
	40	1	16.729	3.091	0.0	0.0	1	1.0	0.0	115.0	1	1.1	0.9				
	41	1	15.557000000000002	5.194	0.0	0.0	1	1.0	0.0	115.0	1	1.1	0.9				
	42	1	16.729	1.116	0.0	0.0	1	1.0	0.0	115.0	1	1.1	0.9				
	43	1	19.24	7.509	0.0	0.0	1	1.0	0.0	115.0	1	1.1	0.9				
	44	1	15.396	4.057	0.0	0.0	1	1.0	0.0	115.0	1	1.1	0.9				
	45	1	12.147	2.921	0.0	0.0	1	1.0	0.0	115.0	1	1.1	0.9				
	46	1	18.201	4.083	0.0	0.0	1	1.0	0.0	115.0	1	1.1	0.9				
	47	1	9.779	1.598	0.0	-10.4246431476	1	1.0	0.0	115.0	1	1.1	0.9				
	48	1	16.513	2.974	0.0	0.0	1	1.0	0.0	115.0	1	1.1	0.9				
	49	1	1.873	0.657	0.0	-5.64253910574	1	1.0	0.0	115.0	1	1.1	0.9				
	50	1	0.0	0.0	0.0	0.0	1	1.0	0.0	115.0	1	1.1	0.9				
	51	1	13.089	3.517	0.0	0.0	1	1.0	0.0	115.0	1	1.1	0.9				
	52	1	26.179999999999996	7.824000000000001	0.0	0.0	1	1.0	0.0	115.0	1	1.1	0.9				
	53	1	0.0	0.0	0.0	0.0	1	1.0	0.0	115.0	1	1.1	0.9				
	54	1	0.0	0.0	0.0	0.0	1	1.0	0.0	115.0	1	1.1	0.9				
	55	1	24.97	3.117	0.0	0.0	1	1.0	0.0	115.0	1	1.1	0.9				
	56	1	0.0	0.0	0.0	0.0	1	1.0	0.0	115.0	1	1.1	0.9				
	57	1	9.407	1.928	0.0	0.0	1	1.0	0.0	115.0	1	1.1	0.9				
	58	1	20.419	11.889	0.0	0.0	1	1.0	0.0	115.0	1	1.1	0.9				
	59	1	19.253	2.164	0.0	0.0	1	1.0	0.0	115.0	1	1.1	0.9				
	60	1	11.049	5.843	0.0	0.0	1	1.0	0.0	115.0	1	1.1	0.9				
	61	1	11.049	1.8260000000000003	0.0	0.0	1	1.0	0.0	115.0	1	1.1	0.9				
	62	1	29.873	5.286	0.0	0.0	1	1.0	0.0	115.0	1	1.1	0.9				
	63	1	0.0	0.0	0.0	0.0	1	1.0	0.0	230.0	1	1.1	0.9				
	64	1	0.0	0.0	0.0	0.0	1	1.0	0.0	115.0	1	1.1	0.9				
	65	1	0.0	0.0	0.0	0.0	1	1.0	0.0	230.0	1	1.1	0.9				
	66	1	48.284	8.649	0.0	0.0	1	1.0	0.0	230.0	1	1.1	0.9				
	67	1	13.678	1.501	0.0	0.0	1	1.0	0.0	115.0	1	1.1	0.9				
	68	1	0.0	0.0	0.0	0.0	1	1.0	0.0	115.0	1	1.1	0.9				
	69	1	15.207999999999998	3.499	0.0	0.0	1	1.0	0.0	115.0	1	1.1	0.9				
	70	1	18.037	6.017	0.0	0.0	1	1.0	0.0	115.0	1	1.1	0.9				
	71	1	9.199	2.42	0.0	0.0	1	1.0	0.0	115.0	1	1.1	0.9				
	72	1	0.0	0.0	0.0	-16.9568583013	1	1.0	0.0	230.0	1	1.1	0.9				
	73	1	0.0	0.0	0.0	0.0	1	1.0	0.0	115.0	1	1.1	0.9				
	74	1	18.173	0.7969999999999999	0.0	0.0	1	1.0	0.0	230.0	1	1.1	0.9				
	75	1	0.0	0.0	0.0	0.0	1	1.0	0.0	230.0	1	1.1	0.9				
	76	1	8.166	1.447	0.0	0.0	1	1.0	0.0	115.0	1	1.1	0.9				
	77	1	23.903	0.311	0.0	0.0	1	1.0	0.0	115.0	1	1.1	0.9				
	78	1	4.882	0.839	0.0	0.0	1	1.0	0.0	115.0	1	1.1	0.9				
	79	1	0.0	0.0	0.0	0.0	1	1.0	0.0	230.0	1	1.1	0.9				
	80	1	0.0	0.0	0.0	0.0	1	1.0	0.0	115.0	1	1.1	0.9				
	81	1	0.0	0.0	0.0	0.0	1	1.0	0.0	230.0	1	1.1	0.9				
	82	1	73.316	6.425	0.0	0.0	1	1.0	0.0	230.0	1	1.1	0.9				
	83	1	0.0	0.0	0.0	0.0	1	1.0	0.0	115.0	1	1.1	0.9				
	84	1	38.447	13.753000000000002	0.0	0.0	1	1.0	0.0	115.0	1	1.1	0.9				
	85	1	0.0	0.0	0.0	0.0	1	1.0	0.0	115.0	1	1.1	0.9				
	86	1	4.055	0.9809999999999999	0.0	0.0	1	1.0	0.0	115.0	1	1.1	0.9				
	87	1	0.0	0.0	0.0	0.0	1	1.0	0.0	115.0	1	1.1	0.9				
	88	1	40.284	30.617	0.0	0.0	1	1.0	0.0	115.0	1	1.1	0.9				
	89	1	0.0	0.0	0.0	0.0	1	1.0	0.0	115.0	1	1.1	0.9				
	90	1	29.773	10.282	0.0	0.0	1	1.0	0.0	115.0	1	1.1	0.9				
	91	1	0.0	0.0	0.0	-136.504392464	1	1.0	0.0	500.0	1	1.1	0.9				
	92	1	0.0	0.0	0.0	0.0	1	1.0	0.0	230.0	1	1.1	0.9				
	93	1	0.0	0.0	0.0	0.0	1	1.0	0.0	115.0	1	1.1	0.9				
	94	1	51.77900000000001	17.005	0.0	0.0	1	1.0	0.0	500.0	1	1.1	0.9				
	95	1	0.0	0.0	0.0	0.0	1	1.0	0.0	500.0	1	1.1	0.9				
	96	1	6.704000000000001	2.726	0.0	0.0	1	1.0	0.0	115.0	1	1.1	0.9				
	97	1	9.819	2.937	0.0	0.0	1	1.0	0.0	115.0	1	1.1	0.9				
	98	1	21.611	8.123	0.0	0.0	1	1.0	0.0	115.0	1	1.1	0.9				
	99	1	0.0	0.0	0.0	0.0	1	1.0	0.0	115.0	1	1.1	0.9				
	100	1	17.886	4.374	0.0	0.0	1	1.0	0.0	115.0	1	1.1	0.9				
	101	1	12.805999999999997	1.7849999999999997	0.0	0.0	1	1.0	0.0	115.0	1	1.1	0.9				
	102	1	0.0	0.0	0.0	0.0	1	1.0	0.0	115.0	1	1.1	0.9				
	103	1	24.077	3.576	0.0	0.0	1	1.0	0.0	115.0	1	1.1	0.9				
	104	1	44.331	4.758	0.0	0.0	1	1.0	0.0	115.0	1	1.1	0.9				
	105	1	0.0	0.0	0.0	0.0	1	1.0	0.0	115.0	1	1.1	0.9				
	106	1	53.16	28.699	0.0	0.0	1	1.0	0.0	115.0	1	1.1	0.9				
	107	1	0.0	0.0	0.0	0.0	1	1.0	0.0	230.0	1	1.1	0.9				
	108	1	0.0	0.0	0.0	0.0	1	1.0	0.0	115.0	1	1.1	0.9				
	109	1	66.981	8.48	0.0	0.0	1	1.0	0.0	230.0	1	1.1	0.9				
	110	1	0.0	0.0	0.0	0.0	1	1.0	0.0	230.0	1	1.1	0.9				
	111	1	9.581	2.553	0.0	0.0	1	1.0	0.0	115.0	1	1.1	0.9				
	112	1	22.158	8.712	0.0	0.0	1	1.0	0.0	115.0	1	1.1	0.9				
	113	1	70.095	21.299	0.0	0.0	1	1.0	0.0	115.0	1	1.1	0.9				
	114	1	69.45	25.104	0.0	0.0	1	1.0	0.0	115.0	1	1.1	0.9				
	115	1	0.0	0.0	0.0	0.0	1	1.0	0.0	230.0	1	1.1	0.9				
	116	1	54.257	11.308	0.0	0.0	1	1.0	0.0	115.0	1	1.1	0.9				
	117	1	0.0	0.0	0.0	0.0	1	1.0	0.0	230.0	1	1.1	0.9				
	118	1	0.0	0.0	0.0	0.0	1	1.0	0.0	230.0	1	1.1	0.9				
	119	1	15.964	7.503	0.0	0.0	1	1.0	0.0	115.0	1	1.1	0.9				
	120	1	0.0	0.0	0.0	0.0	1	1.0	0.0	115.0	1	1.1	0.9				
	121	1	24.551	10.578	0.0	0.0	1	1.0	0.0	115.0	1	1.1	0.9				
	122	1	6.74	1.068	0.0	0.0	1	1.0	0.0	115.0	1	1.1	0.9				
	123	1	6.593	1.944	0.0	0.0	1	1.0	0.0	115.0	1	1.1	0.9				
	124	1	28.505999999999997	7.310999999999999	0.0	0.0	1	1.0	0.0	115.0	1	1.1	0.9				
	125	1	46.107	16.005	0.0	0.0	1	1.0	0.0	115.0	1	1.1	0.9				
	126	1	26.062	9.396	0.0	0.0	1	1.0	0.0	115.0	1	1.1	0.9				
	127	1	12.277	1.648	0.0	0.0	1	1.0	0.0	115.0	1	1.1	0.9				
	128	1	0.0	0.0	0.0	0.0	1	1.0	0.0	115.0	1	1.1	0.9				
	129	1	7.718	8.553	0.0	0.0	1	1.0	0.0	115.0	1	1.1	0.9				
	130	1	0.0	0.0	0.0	0.0	1	1.0	0.0	230.0	1	1.1	0.9				
	131	1	48.817	10.676	0.0	0.0	1	1.0	0.0	115.0	1	1.1	0.9				
	132	1	0.0	0.0	0.0	0.0	1	1.0	0.0	230.0	1	1.1	0.9				
	133	1	0.0	0.0	0.0	0.0	1	1.0	0.0	230.0	1	1.1	0.9				
	134	1	0.0	0.0	0.0	0.0	1	1.0	0.0	115.0	1	1.1	0.9				
	135	1	31.089	5.445	0.0	0.0	1	1.0	0.0	230.0	1	1.1	0.9				
	136	1	15.508	3.4910000000000005	0.0	0.0	1	1.0	0.0	115.0	1	1.1	0.9				
	137	1	14.693000000000001	4.74	0.0	0.0	1	1.0	0.0	115.0	1	1.1	0.9				
	138	1	0.0	0.0	0.0	0.0	1	1.0	0.0	115.0	1	1.1	0.9				
	139	1	14.427000000000001	4.536	0.0	0.0	1	1.0	0.0	115.0	1	1.1	0.9				
	140	1	11.198	6.382000000000001	0.0	0.0	1	1.0	0.0	115.0	1	1.1	0.9				
	141	1	12.223	8.617	0.0	0.0	1	1.0	0.0	115.0	1	1.1	0.9				
	142	1	5.649	4.233	0.0	0.0	1	1.0	0.0	115.0	1	1.1	0.9				
	143	1	14.305000000000001	2.313	0.0	0.0	1	1.0	0.0	115.0	1	1.1	0.9				
	144	1	0.0	0.0	0.0	0.0	1	1.0	0.0	115.0	1	1.1	0.9				
	145	1	15.693999999999999	1.312	0.0	0.0	1	1.0	0.0	115.0	1	1.1	0.9				
	146	1	0.0	0.0	0.0	0.0	1	1.0	0.0	115.0	1	1.1	0.9				
	147	1	7.62	0.9820000000000001	0.0	0.0	1	1.0	0.0	115.0	1	1.1	0.9				
	148	1	19.416	6.756999999999999	0.0	0.0	1	1.0	0.0	115.0	1	1.1	0.9				
	149	1	0.0	0.0	0.0	0.0	1	1.0	0.0	115.0	1	1.1	0.9				
	150	1	3.671	0.314	0.0	0.0	1	1.0	0.0	115.0	1	1.1	0.9				
	151	1	11.99	2.544	0.0	0.0	1	1.0	0.0	115.0	1	1.1	0.9				
	152	1	13.036	8.096	0.0	0.0	1	1.0	0.0	115.0	1	1.1	0.9				
	153	1	7.742	1.817	0.0	0.0	1	1.0	0.0	115.0	1	1.1	0.9				
	154	1	5.341	2.089	0.0	0.0	1	1.0	0.0	115.0	1	1.1	0.9				
	155	1	8.139	3.4099999999999997	0.0	0.0	1	1.0	0.0	115.0	1	1.1	0.9				
	156	1	0.0	0.0	0.0	0.0	1	1.0	0.0	115.0	1	1.1	0.9				
	157	1	6.932	1.099	0.0	0.0	1	1.0	0.0	115.0	1	1.1	0.9				
	158	1	5.811	2.402	0.0	0.0	1	1.0	0.0	115.0	1	1.1	0.9				
	159	1	12.173	4.954	0.0	0.0	1	1.0	0.0	115.0	1	1.1	0.9				
	160	1	0.0	0.0	0.0	0.0	1	1.0	0.0	230.0	1	1.1	0.9				
	161	1	0.0	0.0	0.0	0.0	1	1.0	0.0	115.0	1	1.1	0.9				
	162	1	24.068	7.4270000000000005	0.0	0.0	1	1.0	0.0	230.0	1	1.1	0.9				
	163	1	0.0	0.0	0.0	0.0	1	1.0	0.0	230.0	1	1.1	0.9				
	164	1	11.745	3.2140000000000004	0.0	0.0	1	1.0	0.0	115.0	1	1.1	0.9				
	165	1	19.057	2.366	0.0	0.0	1	1.0	0.0	115.0	1	1.1	0.9				
	166	1	0.0	0.0	0.0	0.0	1	1.0	0.0	115.0	1	1.1	0.9				
	167	1	0.0	0.0	0.0	0.0	1	1.0	0.0	115.0	1	1.1	0.9				
	168	1	18.694	6.364	0.0	0.0	1	1.0	0.0	115.0	1	1.1	0.9				
	169	1	18.694	5.794	0.0	0.0	1	1.0	0.0	115.0	1	1.1	0.9				
	170	1	0.0	0.0	0.0	0.0	1	1.0	0.0	115.0	1	1.1	0.9				
	171	1	18.936	6.123	0.0	0.0	1	1.0	0.0	115.0	1	1.1	0.9				
	172	1	0.0	0.0	0.0	0.0	1	1.0	0.0	230.0	1	1.1	0.9				
	173	1	0.0	0.0	0.0	0.0	1	1.0	0.0	115.0	1	1.1	0.9				
	174	1	18.694	6.267	0.0	-6.67443540647	1	1.0	0.0	230.0	1	1.1	0.9				
	175	1	19.265	5.336	0.0	0.0	1	1.0	0.0	115.0	1	1.1	0.9				
	176	1	0.0	0.0	0.0	0.0	1	1.0	0.0	115.0	1	1.1	0.9				
	177	1	7.515	2.002	0.0	0.0	1	1.0	0.0	115.0	1	1.1	0.9				
	178	1	0.0	0.0	0.0	0.0	1	1.0	0.0	230.0	1	1.1	0.9				
	179	1	20.961	4.285	0.0	0.0	1	1.0	0.0	115.0	1	1.1	0.9				
	180	1	0.0	0.0	0.0	0.0	1	1.0	0.0	230.0	1	1.1	0.9				
	181	1	0.0	0.0	0.0	0.0	1	1.0	0.0	230.0	1	1.1	0.9				
	182	1	9.136	0.53	0.0	0.0	1	1.0	0.0	115.0	1	1.1	0.9				
	183	1	0.0	0.0	0.0	8.9500529104	1	1.0	0.0	115.0	1	1.1	0.9				
	184	1	5.728	2.825	0.0	0.0	1	1.0	0.0	115.0	1	1.1	0.9				
	185	1	13.467	5.902	0.0	0.0	1	1.0	0.0	115.0	1	1.1	0.9				
	186	1	13.467	7.017999999999999	0.0	0.0	1	1.0	0.0	115.0	1	1.1	0.9				
	187	1	0.0	0.0	0.0	0.0	1	1.0	0.0	115.0	1	1.1	0.9				
	188	1	18.698	7.993	0.0	0.0	1	1.0	0.0	115.0	1	1.1	0.9				
	189	1	11.778	0.8340000000000001	0.0	0.0	1	1.0	0.0	115.0	1	1.1	0.9				
	190	1	5.44	1.383	0.0	0.0	1	1.0	0.0	115.0	1	1.1	0.9				
	191	1	6.038	3.119	0.0	0.0	1	1.0	0.0	115.0	1	1.1	0.9				
	192	1	17.094	3.107	0.0	0.0	1	1.0	0.0	115.0	1	1.1	0.9				
	193	1	16.615	4.755	0.0	-14.936516874300002	1	1.0	0.0	115.0	1	1.1	0.9				
	194	1	0.0	0.0	0.0	127.5611999	1	1.0	0.0	230.0	1	1.1	0.9				
	195	1	52.722	17.715	0.0	0.0	1	1.0	0.0	115.0	1	1.1	0.9				
	196	1	0.0	0.0	0.0	0.0	1	1.0	0.0	230.0	1	1.1	0.9				
	197	1	17.904	3.7900000000000005	0.0	0.0	1	1.0	0.0	115.0	1	1.1	0.9				
	198	1	0.0	0.0	0.0	0.0	1	1.0	0.0	230.0	1	1.1	0.9				
	199	1	0.0	0.0	0.0	0.0	1	1.0	0.0	115.0	1	1.1	0.9				
	200	1	33.012	12.135	0.0	0.0	1	1.0	0.0	230.0	1	1.1	0.9				
...
];

%% generator data
%    bus    Pg    Qg    Qmax    Qmin    Vg    mBase    status    Pmax    Pmin    Pc1    Pc2    Qc1min    Qc1max    Qc2min    Qc2max    ramp_agc    ramp_10    ramp_30    ramp_q    apf
mpc.gen = [
	2275	62.66149999999999	19.005	48.61	-10.6	1.0	95.5	1	95.5	29.823															
	2276	67.5395	19.005	48.61	-10.6	1.0	95.5	1	95.5	39.579															
	2277	53.64249999999999	19.005	48.61	-10.6	1.0	95.5	1	95.5	11.785															
	2278	53.411500000000004	19.005	48.61	-10.6	1.0	95.5	1	95.5	11.323															
	2279	59.027499999999996	19.005	48.61	-10.6	1.0	95.5	1	95.5	22.555															
	2280	57.3245	19.005	48.61	-10.6	1.0	95.5	1	95.5	19.149															
	2285	129.7165	6.934500000000001	42.813	-28.944	1.0	201.0	1	200.99999999999997	58.433															
	2289	5.141	1.3075	3.542	-0.927	1.0	7.6	1	7.6	2.682															
	2289	3.1035	0.8085	2.19	-0.573	1.0	4.7	1	4.7	1.507															
	2290	1.2615	0.2985	0.808	-0.211	1.0	1.73	1	1.733	0.79															
	2290	1.035	0.2985	0.808	-0.211	1.0	1.73	1	1.733	0.337															
	2291	1.158	0.2985	0.808	-0.211	1.0	1.73	1	1.733	0.583															
	2291	1.291	0.2985	0.808	-0.211	1.0	1.73	1	1.733	0.849															
	2292	1.0245	0.2985	0.808	-0.211	1.0	1.73	1	1.733	0.316															
	2293	1.139	0.2985	0.808	-0.211	1.0	1.73	1	1.733	0.545															
	2294	1.0135	0.2755	0.746	-0.195	1.0	1.6	1	1.6	0.42699999999999994															
	2294	1.0145	0.2755	0.746	-0.195	1.0	1.6	1	1.6	0.42899999999999994															
	2295	0.9775	0.258	0.699	-0.183	1.0	1.5	1	1.5	0.455															
	2295	0.7805	0.2405	0.652	-0.171	1.0	1.4	1	1.4	0.161															
	2296	0.369	0.086	0.233	-0.061	1.0	0.5	1	0.5	0.23799999999999996															
	2302	202.601	58.506	149.646	-32.634	1.0	294.0	1	294.0	111.202															
	2303	190.8575	58.506	149.646	-32.634	1.0	294.0	1	294.0	87.715															
	2304	183.5835	58.506	149.646	-32.634	1.0	294.0	1	294.0	73.167															
	2310	0.0	0.0	290.038	-75.933	1.0	622.4	0	622.4	274.004															
	2315	81.4205	22.387	57.262	-12.488	1.0	112.5	1	112.5	50.341															
	2316	74.5115	22.387	57.262	-12.488	1.0	112.5	1	112.5	36.523															
	2317	79.9875	22.387	57.262	-12.488	1.0	112.5	1	112.5	47.475															
	2318	63.79699999999999	22.387	57.262	-12.488	1.0	112.5	1	112.5	15.094															
	2323	93.0875	5.5545	34.293	-23.184	1.0	161.0	1	161.0	25.175000000000004															
	2327	70.421	3.4915000000000003	21.556	-14.573	1.0	101.2	1	101.2	39.642															
	2332	118.792	36.4835	93.317	-20.35	1.0	183.33	1	183.333	54.25099999999999															
	2333	134.281	36.4835	93.317	-20.35	1.0	183.33	1	183.333	85.229															
	2334	126.588	36.4835	93.317	-20.35	1.0	183.33	1	183.333	69.843															
	2340	0.0	0.0	336.452	-88.084	1.0	722.0	0	722.0	187.779															
	2341	0.0	0.0	336.452	-88.084	1.0	722.0	0	722.0	295.436															
	2346	51.5395	17.791	45.505	-9.923	1.0	89.4	1	89.4	13.679															
	2347	55.1645	17.791	45.505	-9.923	1.0	89.4	1	89.4	20.929															
	2348	53.8775	17.791	45.505	-9.923	1.0	89.4	1	89.4	18.355															
	2349	63.139	17.791	45.505	-9.923	1.0	89.4	1	89.4	36.878															
	2350	57.487	17.791	45.505	-9.923	1.0	89.4	1	89.4	25.574															
	2351	65.3425	17.791	45.505	-9.923	1.0	89.4	1	89.4	41.285															
	2352	0.2735	0.0865	0.22100000000000003	-0.048	1.0	0.43	1	0.43299999999999994	0.11399999999999999															
	2353	0.3035	0.0865	0.22100000000000003	-0.048	1.0	0.43	1	0.43299999999999994	0.174															
	2353	0.322	0.0865	0.22100000000000003	-0.048	1.0	0.43	1	0.43299999999999994	0.211															
	2358	9.0645	3.1390000000000002	8.029	-1.751	1.0	15.77	1	15.775	2.354															
	2358	11.826	3.1390000000000002	8.029	-1.751	1.0	15.77	1	15.775	7.876999999999999															
	2359	10.564	3.1390000000000002	8.029	-1.751	1.0	15.77	1	15.775	5.353															
	2360	10.255	3.1390000000000002	8.029	-1.751	1.0	15.77	1	15.775	4.735															
	2364	99.9865	35.521	90.856	-19.814	1.0	178.5	1	178.5	21.473															
	2365	114.019	35.521	90.856	-19.814	1.0	178.5	1	178.5	49.538															
	2366	117.6955	35.521	90.856	-19.814	1.0	178.5	1	178.5	56.891000000000005															
	2371	141.285	48.437	123.89099999999999	-27.017000000000003	1.0	243.4	1	243.4	39.17															
	2372	161.063	48.437	123.89099999999999	-27.017000000000003	1.0	243.4	1	243.4	78.726															
	2373	178.138	48.437	123.89099999999999	-27.017000000000003	1.0	243.4	1	243.4	112.876															
	2376	2.0545	0.6865	1.756	-0.383	1.0	3.45	1	3.45	0.659															
	2376	2.468	0.6865	1.756	-0.383	1.0	3.45	1	3.45	1.486															
	2376	3.2869999999999995	0.9950000000000001	2.545	-0.555	1.0	5.0	1	5.0	1.574															
	2376	28.5935	9.552	24.432	-5.328	1.0	48.0	1	48.0	9.187															
	2379	26.4945	74.3045	148.609	0.0	1.0	39.6	1	39.6	13.388999999999998															
	2384	79.8055	25.869999999999997	66.17	-14.429999999999998	1.0	130.0	1	130.0	29.610999999999997															
	2385	82.8875	25.869999999999997	66.17	-14.429999999999998	1.0	130.0	1	130.0	35.775															
	2390	97.9315	31.024	79.353	-17.305	1.0	155.9	1	155.9	39.963															
	2391	102.8945	31.024	79.353	-17.305	1.0	155.9	1	155.9	49.889															
	2392	88.465	31.024	79.353	-17.305	1.0	155.9	1	155.9	21.03															
	2397	0.0	0.0	335.986	-87.962	1.0	721.0	0	721.0	77.142															
	2401	2.021	0.536	1.229	-0.157	1.0	3.2	1	3.2	0.8420000000000001															
	2401	2.2985	0.536	1.229	-0.157	1.0	3.2	1	3.2	1.397															
	2401	2.219	0.536	1.229	-0.157	1.0	3.2	1	3.2	1.238															
	2401	20.263	5.5275	12.672	-1.617	1.0	33.0	1	33.0	7.526															
	2401	20.4725	5.5275	12.672	-1.617	1.0	33.0	1	33.0	7.945															
	2404	45.741	2.6305	16.241	-10.98	1.0	76.25	1	76.25	15.231999999999998															
	2404	49.1675	2.6305	16.241	-10.98	1.0	76.25	1	76.25	22.085															
	2409	15.83	5.572	14.252	-3.108	1.0	28.0	1	28.000000000000004	3.66															
	2409	16.114	5.572	14.252	-3.108	1.0	28.0	1	28.000000000000004	4.228															
	2410	18.26	5.572	14.252	-3.108	1.0	28.0	1	28.000000000000004	8.52															
	2411	18.805	5.572	14.252	-3.108	1.0	28.0	1	28.000000000000004	9.61															
	2411	15.846499999999999	5.572	14.252	-3.108	1.0	28.0	1	28.000000000000004	3.6929999999999996															
	2412	16.0345	5.572	14.252	-3.108	1.0	28.0	1	28.000000000000004	4.069															
	2416	20.541	5.632	14.404999999999998	-3.141	1.0	28.3	1	28.300000000000004	12.781999999999998															
	2416	18.2115	5.632	14.404999999999998	-3.141	1.0	28.3	1	28.300000000000004	8.123															
	2417	21.162	5.632	14.404999999999998	-3.141	1.0	28.3	1	28.300000000000004	14.024000000000001															
	2417	15.821	5.632	14.404999999999998	-3.141	1.0	28.3	1	28.300000000000004	3.3419999999999996															
	2418	18.973	5.632	14.404999999999998	-3.141	1.0	28.3	1	28.300000000000004	9.646															
	2418	17.765	5.632	14.404999999999998	-3.141	1.0	28.3	1	28.300000000000004	7.23															
	2423	34.869	12.139	31.049	-6.770999999999999	1.0	61.0	1	61.0	8.738															
	2424	14.083000000000002	4.776	12.216	-2.664	1.0	24.0	1	24.0	4.166															
	2428	180.4305	49.4845	126.57099999999998	-27.602	1.0	248.67	1	248.66700000000003	112.19399999999999															
	2429	168.8195	49.4845	126.57099999999998	-27.602	1.0	248.67	1	248.66700000000003	88.972															
	2430	166.0435	49.4845	126.57099999999998	-27.602	1.0	248.67	1	248.66700000000003	83.42															
	2433	50.8625	17.791	45.505	-9.923	1.0	89.4	1	89.4	12.325															
	2433	52.332	17.791	45.505	-9.923	1.0	89.4	1	89.4	15.264															
	2433	56.66	17.791	45.505	-9.923	1.0	89.4	1	89.4	23.92															
	2433	62.86000000000001	17.791	45.505	-9.923	1.0	89.4	1	89.4	36.32															
	2433	50.06499999999999	17.791	45.505	-9.923	1.0	89.4	1	89.4	10.73															
	2441	110.8295	33.4985	85.682	-18.685	1.0	168.33	1	168.333	53.32599999999999															
	2442	108.499	33.4985	85.682	-18.685	1.0	168.33	1	168.333	48.665															
	2443	121.871	33.4985	85.682	-18.685	1.0	168.33	1	168.333	75.409															
	2449	226.05850000000004	66.931	169.088	-35.226	1.0	317.35	1	317.35	134.767															
	2450	215.5345	32.704	100.634	-35.226	1.0	317.35	1	317.35	113.719															
	2455	92.504	26.228	67.086	-14.63	1.0	131.8	1	131.8	53.208															
	2456	95.511	26.228	67.086	-14.63	1.0	131.8	1	131.8	59.221999999999994															
	2459	14.707	4.378	11.198	-2.442	1.0	22.0	1	22.0	7.414															
	2459	13.252	4.378	11.198	-2.442	1.0	22.0	1	22.0	4.504															
	2459	15.9775	4.378	11.198	-2.442	1.0	22.0	1	22.0	9.955															
	2464	62.0575	19.24	49.212	-10.732	1.0	96.68	1	96.683	27.432000000000002															
	2465	62.44499999999999	19.24	49.212	-10.732	1.0	96.68	1	96.683	28.206999999999997															
	2466	63.739999999999995	19.24	49.212	-10.732	1.0	96.68	1	96.683	30.797															
	2467	63.5135	19.24	49.212	-10.732	1.0	96.68	1	96.683	30.343999999999998															
	2468	64.81	19.24	49.212	-10.732	1.0	96.68	1	96.683	32.937															
	2469	69.8775	19.24	49.212	-10.732	1.0	96.68	1	96.683	43.072															
	2473	44.078	15.153500000000001	38.76	-8.453	1.0	76.15	1	76.15	12.006															
	2473	49.2205	15.153500000000001	38.76	-8.453	1.0	76.15	1	76.15	22.291															
	2473	56.086999999999996	15.153500000000001	38.76	-8.453	1.0	76.15	1	76.15	36.024															
	2473	43.246	15.153500000000001	38.76	-8.453	1.0	76.15	1	76.15	10.342															
	2477	24.353	7.562	19.342	-4.218	1.0	38.0	1	38.0	10.706															
	2481	115.0935	5.872	36.253	-24.509	1.0	170.2	1	170.2	59.987															
	2486	163.1075	44.815	114.627	-24.997	1.0	225.2	1	225.2	101.01500000000001															
	2487	146.4825	44.815	114.627	-24.997	1.0	225.2	1	225.2	67.765															
	2488	152.682	44.815	114.627	-24.997	1.0	225.2	1	225.2	80.164															
	2493	101.69900000000001	5.175	31.95	-21.6	1.0	150.0	1	150.0	53.398															
	2499	117.4255	6.21	38.34	-25.920000000000005	1.0	180.0	1	180.0	54.85099999999999															
	2500	5.633	0.3105	1.917	-1.296	1.0	9.0	1	9.0	2.266															
	2506	119.9925	32.119	82.153	-17.915	1.0	161.4	1	161.4	78.585															
	2507	106.90250000000002	32.119	82.153	-17.915	1.0	161.4	1	161.4	52.405															
	2508	106.6125	32.119	82.153	-17.915	1.0	161.4	1	161.4	51.824999999999996															
	2509	111.0695	32.119	82.153	-17.915	1.0	161.4	1	161.4	60.739															
	2510	117.82	32.119	82.153	-17.915	1.0	161.4	1	161.4	74.24															
	2515	153.337	41.0405	104.973	-22.892	1.0	206.23	1	206.23300000000003	100.441															
	2516	148.554	41.0405	104.973	-22.892	1.0	206.23	1	206.23300000000003	90.875															
	2517	151.3125	41.0405	104.973	-22.892	1.0	206.23	1	206.23300000000003	96.392															
	2521	39.0095	2.3325	14.398999999999997	-9.734	1.0	67.6	1	67.6	10.419															
	2526	102.64850000000001	30.845	78.895	-17.205	1.0	155.0	1	155.0	50.29699999999999															
	2527	87.6085	30.845	78.895	-17.205	1.0	155.0	1	155.0	20.217															
	2531	16.695	0.0	0.0	0.0	1.0	30.0	1	30.0	3.39															
	2531	0.9745	0.0	0.0	0.0	1.0	1.4	1	1.4	0.549															
	2536	41.868	11.741	30.030999999999995	-6.549	1.0	59.0	1	59.0	24.736															
	2537	35.8405	11.741	30.030999999999995	-6.549	1.0	59.0	1	59.0	12.680999999999997															
	2538	38.3715	11.741	30.030999999999995	-6.549	1.0	59.0	1	59.0	17.743															
	2539	42.7555	11.741	30.030999999999995	-6.549	1.0	59.0	1	59.0	26.511000000000003															
	2544	120.83749999999999	30.0315	81.364	-21.301	1.0	174.6	1	174.6	67.075															
	2545	108.4295	30.0315	81.364	-21.301	1.0	174.6	1	174.6	42.259															
	2548	17.143	5.552	14.201	-3.097	1.0	27.9	1	27.9	6.386															
	2549	15.7005	5.552	14.201	-3.097	1.0	27.9	1	27.9	3.501															
	2549	20.537	5.552	14.201	-3.097	1.0	27.9	1	27.9	13.174															
	2549	18.6995	5.552	14.201	-3.097	1.0	27.9	1	27.9	9.499															
	2549	19.7105	5.552	14.201	-3.097	1.0	27.9	1	27.9	11.521															
	2549	19.2055	5.552	14.201	-3.097	1.0	27.9	1	27.9	10.511															
	2554	89.3135	26.247999999999998	67.137	-14.641000000000002	1.0	131.9	1	131.9	46.727															
	2555	98.6265	26.247999999999998	67.137	-14.641000000000002	1.0	131.9	1	131.9	65.353															
	2556	79.849	26.247999999999998	67.137	-14.641000000000002	1.0	131.9	1	131.9	27.798000000000002															
	2557	82.33	26.247999999999998	67.137	-14.641000000000002	1.0	131.9	1	131.9	32.76															
	2563	878.8745	173.745	447.11999999999995	-99.63	1.0	1215.0	1	1215.0	542.749															
	2564	705.927	173.745	447.11999999999995	-99.63	1.0	1215.0	1	1215.0	196.854															
	2567	48.3115	14.328	36.648	-7.992000000000001	1.0	72.0	1	72.0	24.623															
	2567	52.248	14.328	36.648	-7.992000000000001	1.0	72.0	1	72.0	32.496															
	2567	40.297	14.328	36.648	-7.992000000000001	1.0	72.0	1	72.0	8.594															
	2567	46.453	14.328	36.648	-7.992000000000001	1.0	72.0	1	72.0	20.906															
	2567	51.493	14.328	36.648	-7.992000000000001	1.0	72.0	1	72.0	30.986000000000004															
	2567	46.2715	14.328	36.648	-7.992000000000001	1.0	72.0	1	72.0	20.543															
	2573	201.24650000000003	9.591	59.214	-40.032	1.0	278.0	1	278.0	124.49299999999998															
	2578	92.9685	5.175	31.95	-21.6	1.0	150.0	1	150.0	35.937															
	2583	243.89	64.715	165.527	-36.097	1.0	325.2	1	325.2	162.58															
	2584	195.8165	64.715	165.527	-36.097	1.0	325.2	1	325.2	66.433															
	2588	144.618	8.0215	49.523	-33.48	1.0	232.5	1	232.50000000000003	56.736															
	2591	52.84949999999999	2.777	17.146	-11.592	1.0	80.5	1	80.5	25.198999999999998															
	2594	54.771	2.7465	16.955	-11.462	1.0	79.6	1	79.6	29.942															
	2598	13.474	4.0295	10.307	-2.248	1.0	20.25	1	20.25	6.6979999999999995															
	2598	12.2065	4.0295	10.307	-2.248	1.0	20.25	1	20.25	4.163															
	2604	137.663	6.9	42.6	-28.800000000000004	1.0	200.0	1	200.0	75.326															
	2611	251.8135	77.968	199.426	-43.49	1.0	391.8	1	391.8	111.82699999999998															
	2612	290.3725	77.968	199.426	-43.49	1.0	391.8	1	391.8	188.945															
	2613	246.51750000000004	77.968	199.426	-43.49	1.0	391.8	1	391.8	101.23500000000001															
	2617	12.188	3.685	8.448	-1.078	1.0	22.0	1	22.0	2.376															
	2617	14.243499999999997	3.685	8.448	-1.078	1.0	22.0	1	22.0	6.487															
	2623	0.0	0.0	307.56	-80.52	1.0	660.0	0	660.0	227.696															
	2624	0.0	0.0	307.56	-80.52	1.0	660.0	0	660.0	113.59300000000002															
	2625	0.0	0.0	307.56	-80.52	1.0	660.0	0	660.0	177.006															
	2630	205.8935	9.957	61.472	-41.558	1.0	288.6	1	288.6	123.187															
	2635	166.8715	8.3145	51.333	-34.704	1.0	241.0	1	241.0	92.743															
	2638	33.0125	2.0285	12.524	-8.467	1.0	58.8	1	58.8	7.225															
	2644	94.332	5.714	35.278	-23.85	1.0	165.63	1	165.625	23.039															
	2645	112.195	5.714	35.278	-23.85	1.0	165.63	1	165.625	58.765															
	2646	105.1805	5.714	35.278	-23.85	1.0	165.63	1	165.625	44.736															
	2647	92.315	5.714	35.278	-23.85	1.0	165.63	1	165.625	19.005															
	2651	98.3255	31.4885	80.541	-17.564	1.0	158.23	1	158.233	38.418															
	2652	112.48700000000001	31.4885	80.541	-17.564	1.0	158.23	1	158.233	66.741															
	2653	91.415	31.4885	80.541	-17.564	1.0	158.23	1	158.233	24.597															
	2657	88.5845	4.3645	26.945000000000004	-18.216	1.0	126.5	1	126.49999999999999	50.669															
	2662	146.684	6.7965	41.961	-28.368	1.0	197.0	1	197.0	96.368															
	2665	52.79200000000001	2.698	16.657	-11.261	1.0	78.2	1	78.2	27.384000000000004															
	2669	134.9585	36.5695	93.537	-20.398	1.0	183.77	1	183.767	86.15															
	2670	127.9265	36.5695	93.537	-20.398	1.0	183.77	1	183.767	72.086															
	2671	102.4915	36.5695	93.537	-20.398	1.0	183.77	1	183.767	21.216															
	2677	108.056	37.0805	94.844	-20.683	1.0	186.33	1	186.333	29.779															
	2678	137.307	37.0805	94.844	-20.683	1.0	186.33	1	186.333	88.281															
	2679	127.8785	37.0805	94.844	-20.683	1.0	186.33	1	186.333	69.424															
	2683	181.582	9.7705	60.321999999999996	-40.781	1.0	283.2	1	283.2	79.964															
	2688	150.95	7.0035	43.239	-29.231999999999996	1.0	203.0	1	202.99999999999997	98.9															
	2691	24.0005	8.557	21.887	-4.773	1.0	43.0	1	43.0	5.001															
	2692	32.241	8.557	21.887	-4.773	1.0	43.0	1	43.0	21.482															
...
];

%% branch data
%    f_bus    t_bus    r    x    b    rateA    rateB    rateC    ratio    angle    status    angmin    angmax
mpc.branch = [
	1	10	0.0087	0.04508	0.03012	161.0	161.0	161.0	0	0	1	-29.999999999999996	29.999999999999996								
	2	5	0.04168	0.15499	0.06378	172.6	172.6	172.6	0	0	1	-29.999999999999996	29.999999999999996								
	2	2971	0.0113	0.0609	0.01935	179.1	179.1	179.1	0	0	1	-29.999999999999996	29.999999999999996								
	3	32	0.02285	0.1258	0.02312	129.8	129.8	129.8	0	0	1	-29.999999999999996	29.999999999999996								
	4	5	0.00021	0.0011	0.0	99999.0	99999.0	99999.0	0	0	1	-29.999999999999996	29.999999999999996								
	5	47	0.01779	0.09175	0.1489	168.8	168.8	168.8	0	0	1	-29.999999999999996	29.999999999999996								
	6	7	0.01146	0.06161	0.01521	118.9	118.9	118.9	0	0	1	-29.999999999999996	29.999999999999996								
	6	3839	0.06146	0.23913	0.02814	132.4	132.4	132.4	0	0	1	-29.999999999999996	29.999999999999996								
	7	3142	0.01943	0.08611	0.03098	154.4	154.4	154.4	0	0	1	-29.999999999999996	29.999999999999996								
	8	9	0.04045	0.19503	0.02577	143.7	143.7	143.7	0	0	1	-29.999999999999996	29.999999999999996								
	8	34	0.03445	0.15102	0.02567	125.9	125.9	125.9	0	0	1	-29.999999999999996	29.999999999999996								
	8	2798	0.03757	0.171	0.015	165.0	165.0	165.0	0	0	1	-29.999999999999996	29.999999999999996								
	10	11	0.03459	0.13093	0.02825	179.5	179.5	179.5	0	0	1	-29.999999999999996	29.999999999999996								
	12	14	0.00024	0.00103	0.0	99999.0	99999.0	99999.0	0	0	1	-29.999999999999996	29.999999999999996								
	12	15	0.00028	0.00118	0.0	99999.0	99999.0	99999.0	0	0	1	-29.999999999999996	29.999999999999996								
	13	11	0.0115	0.05155	0.00995	186.6	186.6	186.6	0	0	1	-29.999999999999996	29.999999999999996								
	13	25	0.03053	0.12823	0.03996	170.2	170.2	170.2	0	0	1	-29.999999999999996	29.999999999999996								
	15	2405	0.00382	0.03136	0.07527	564.4	564.4	564.4	0	0	1	-29.999999999999996	29.999999999999996								
	15	3118	0.00577	0.05823	0.28363	602.8	602.8	602.8	0	0	1	-29.999999999999996	29.999999999999996								
	16	18	0.00029	0.00105	0.0	99999.0	99999.0	99999.0	0	0	1	-29.999999999999996	29.999999999999996								
	16	19	0.00021	0.00106	0.0	99999.0	99999.0	99999.0	0	0	1	-29.999999999999996	29.999999999999996								
	17	70	0.02482	0.12658	0.04798	148.2	148.2	148.2	0	0	1	-29.999999999999996	29.999999999999996								
	19	3259	0.01233	0.10016	0.25445	532.2	532.2	532.2	0	0	1	-29.999999999999996	29.999999999999996								
	20	22	0.00021	0.00114	0.0	99999.0	99999.0	99999.0	0	0	1	-29.999999999999996	29.999999999999996								
	20	23	0.00028	0.00106	0.0	99999.0	99999.0	99999.0	0	0	1	-29.999999999999996	29.999999999999996								
	21	9	0.0449	0.16501	0.01666	108.5	108.5	108.5	0	0	1	-29.999999999999996	29.999999999999996								
	22	3615	0.00793	0.06747	0.23868	597.9	597.9	597.9	0	0	1	-29.999999999999996	29.999999999999996								
	24	32	0.01064	0.03316	0.00869	147.4	147.4	147.4	0	0	1	-29.999999999999996	29.999999999999996								
	25	24	0.00921	0.03545	0.00947	146.1	146.1	146.1	0	0	1	-29.999999999999996	29.999999999999996								
	25	43	0.00594	0.0302	0.03786	175.1	175.1	175.1	0	0	1	-29.999999999999996	29.999999999999996								
	26	2572	0.0208	0.09668	0.02411	135.6	135.6	135.6	0	0	1	-29.999999999999996	29.999999999999996								
	26	3467	0.05134	0.25172	0.03633	160.0	160.0	160.0	0	0	1	-29.999999999999996	29.999999999999996								
	27	30	0.00029	0.00101	0.0	99999.0	99999.0	99999.0	0	0	1	-29.999999999999996	29.999999999999996								
	27	2585	0.00049	0.00859	1.20744	2730.0	2730.0	2730.0	0	0	1	-29.999999999999996	29.999999999999996								
	27	3124	0.001	0.01944	2.12114	2885.3	2885.3	2885.3	0	0	1	-29.999999999999996	29.999999999999996								
	28	31	0.0003	0.00103	0.0	99999.0	99999.0	99999.0	0	0	1	-29.999999999999996	29.999999999999996								
	29	3557	0.00452	0.02384	0.01438	170.8	170.8	170.8	0	0	1	-29.999999999999996	29.999999999999996								
	31	65	0.00329	0.03121	0.15293	513.4	513.4	513.4	0	0	1	-29.999999999999996	29.999999999999996								
	31	2574	0.00652	0.0629	0.18163	513.0	513.0	513.0	0	0	1	-29.999999999999996	29.999999999999996								
	31	3567	0.00127	0.01143	0.03245	651.5	651.5	651.5	0	0	1	-29.999999999999996	29.999999999999996								
	31	3567	0.00127	0.01143	0.03245	651.5	651.5	651.5	0	0	1	-29.999999999999996	29.999999999999996								
	32	33	0.00021	0.00116	0.0	99999.0	99999.0	99999.0	0	0	1	-29.999999999999996	29.999999999999996								
	32	2282	0.00716	0.03527	0.01736	178.4	178.4	178.4	0	0	1	-29.999999999999996	29.999999999999996								
	34	56	0.03264	0.16102	0.02997	134.9	134.9	134.9	0	0	1	-29.999999999999996	29.999999999999996								
	35	36	0.00024	0.00114	0.0	99999.0	99999.0	99999.0	0	0	1	-29.999999999999996	29.999999999999996								
	35	62	0.01883	0.10742	0.02725	115.3	115.3	115.3	0	0	1	-29.999999999999996	29.999999999999996								
	37	39	0.00025	0.00118	0.0	99999.0	99999.0	99999.0	0	0	1	-29.999999999999996	29.999999999999996								
	37	2975	0.00926	0.08957	0.19243	584.8	584.8	584.8	0	0	1	-29.999999999999996	29.999999999999996								
	38	35	0.01179	0.04912	0.01005	139.0	139.0	139.0	0	0	1	-29.999999999999996	29.999999999999996								
	40	54	0.00717	0.03214	0.01168	183.9	183.9	183.9	0	0	1	-29.999999999999996	29.999999999999996								
	41	24	0.00554	0.0269	0.01549	152.7	152.7	152.7	0	0	1	-29.999999999999996	29.999999999999996								
	42	40	0.00522	0.01499	0.00686	198.7	198.7	198.7	0	0	1	-29.999999999999996	29.999999999999996								
	42	2282	0.01068	0.05861	0.01552	200.1	200.1	200.1	0	0	1	-29.999999999999996	29.999999999999996								
	43	41	0.00246	0.01272	0.00586	168.0	168.0	168.0	0	0	1	-29.999999999999996	29.999999999999996								
	43	3557	0.00614	0.03023	0.00712	164.6	164.6	164.6	0	0	1	-29.999999999999996	29.999999999999996								
	44	29	0.00738	0.02468	0.00717	123.9	123.9	123.9	0	0	1	-29.999999999999996	29.999999999999996								
	44	45	0.0055	0.0265	0.0033	145.5	145.5	145.5	0	0	1	-29.999999999999996	29.999999999999996								
	45	2282	0.0079	0.04148	0.00396	162.4	162.4	162.4	0	0	1	-29.999999999999996	29.999999999999996								
	46	38	0.02563	0.14224	0.01306	169.3	169.3	169.3	0	0	1	-29.999999999999996	29.999999999999996								
	48	47	0.00865	0.03468	0.02152	166.3	166.3	166.3	0	0	1	-29.999999999999996	29.999999999999996								
	48	71	0.03201	0.12189	0.05261	176.6	176.6	176.6	0	0	1	-29.999999999999996	29.999999999999996								
	49	50	0.00022	0.00108	0.0	99999.0	99999.0	99999.0	0	0	1	-29.999999999999996	29.999999999999996								
	50	86	0.0328	0.16516	0.09333	116.19999999999999	116.19999999999999	116.19999999999999	0	0	1	-29.999999999999996	29.999999999999996								
	51	59	0.01464	0.04673	0.00744	114.8	114.8	114.8	0	0	1	-29.999999999999996	29.999999999999996								
	52	53	0.00021	0.00103	0.0	99999.0	99999.0	99999.0	0	0	1	-29.999999999999996	29.999999999999996								
	53	54	0.00707	0.03381	0.01158	147.3	147.3	147.3	0	0	1	-29.999999999999996	29.999999999999996								
	53	59	0.00623	0.0242	0.00374	121.30000000000001	121.30000000000001	121.30000000000001	0	0	1	-29.999999999999996	29.999999999999996								
	54	51	0.01384	0.04606	0.00524	145.7	145.7	145.7	0	0	1	-29.999999999999996	29.999999999999996								
	54	55	0.00027	0.00106	0.0	99999.0	99999.0	99999.0	0	0	1	-29.999999999999996	29.999999999999996								
	56	46	0.04103	0.16139	0.02102	159.3	159.3	159.3	0	0	1	-29.999999999999996	29.999999999999996								
	56	57	0.00022	0.00118	0.0	99999.0	99999.0	99999.0	0	0	1	-29.999999999999996	29.999999999999996								
	56	96	0.01994	0.09722	0.00985	136.4	136.4	136.4	0	0	1	-29.999999999999996	29.999999999999996								
	58	64	0.015	0.07401	0.00725	134.0	134.0	134.0	0	0	1	-29.999999999999996	29.999999999999996								
	59	58	0.00557	0.02601	0.00571	109.3	109.3	109.3	0	0	1	-29.999999999999996	29.999999999999996								
	60	61	0.0002	0.00106	0.0	99999.0	99999.0	99999.0	0	0	1	-29.999999999999996	29.999999999999996								
	60	67	0.00441	0.02151	0.01126	144.1	144.1	144.1	0	0	1	-29.999999999999996	29.999999999999996								
	60	77	0.00675	0.04224	0.01573	169.1	169.1	169.1	0	0	1	-29.999999999999996	29.999999999999996								
	62	47	0.0085	0.05417	0.06179	188.6	188.6	188.6	0	0	1	-29.999999999999996	29.999999999999996								
	62	85	0.01218	0.06348	0.01115	166.7	166.7	166.7	0	0	1	-29.999999999999996	29.999999999999996								
	63	65	0.0003	0.00111	0.0	99999.0	99999.0	99999.0	0	0	1	-29.999999999999996	29.999999999999996								
	63	66	0.0003	0.00116	0.0	99999.0	99999.0	99999.0	0	0	1	-29.999999999999996	29.999999999999996								
	64	53	0.00517	0.02427	0.00753	154.1	154.1	154.1	0	0	1	-29.999999999999996	29.999999999999996								
	64	59	0.00458	0.0236	0.00997	156.3	156.3	156.3	0	0	1	-29.999999999999996	29.999999999999996								
	64	67	0.00668	0.0258	0.00494	138.5	138.5	138.5	0	0	1	-29.999999999999996	29.999999999999996								
	68	69	0.00026	0.00104	0.0	99999.0	99999.0	99999.0	0	0	1	-29.999999999999996	29.999999999999996								
	68	3394	0.00964	0.03811	0.00673	120.39999999999999	120.39999999999999	120.39999999999999	0	0	1	-29.999999999999996	29.999999999999996								
	70	68	0.00842	0.04011	0.02742	161.6	161.6	161.6	0	0	1	-29.999999999999996	29.999999999999996								
	70	2713	0.01477	0.0596	0.01854	162.4	162.4	162.4	0	0	1	-29.999999999999996	29.999999999999996								
	72	74	0.00023	0.00109	0.0	99999.0	99999.0	99999.0	0	0	1	-29.999999999999996	29.999999999999996								
	72	75	0.00027	0.00118	0.0	99999.0	99999.0	99999.0	0	0	1	-29.999999999999996	29.999999999999996								
	73	71	0.0162	0.0528	0.0087	182.0	182.0	182.0	0	0	1	-29.999999999999996	29.999999999999996								
	75	3713	0.00519	0.04788	0.20757	615.4	615.4	615.4	0	0	1	-29.999999999999996	29.999999999999996								
	76	58	0.01303	0.04777	0.02234	147.7	147.7	147.7	0	0	1	-29.999999999999996	29.999999999999996								
	76	77	0.01118	0.05743	0.0095	160.5	160.5	160.5	0	0	1	-29.999999999999996	29.999999999999996								
	77	2282	0.01741	0.07702	0.0321	199.3	199.3	199.3	0	0	1	-29.999999999999996	29.999999999999996								
	78	68	0.03304	0.12753	0.01506	148.5	148.5	148.5	0	0	1	-29.999999999999996	29.999999999999996								
	78	7121	0.03285	0.1673	0.03843	141.0	141.0	141.0	0	0	1	-29.999999999999996	29.999999999999996								
	79	81	0.00029	0.00113	0.0	99999.0	99999.0	99999.0	0	0	1	-29.999999999999996	29.999999999999996								
	79	82	0.00029	0.00119	0.0	99999.0	99999.0	99999.0	0	0	1	-29.999999999999996	29.999999999999996								
	80	89	0.01161	0.06284	0.01127	117.40000000000002	117.40000000000002	117.40000000000002	0	0	1	-29.999999999999996	29.999999999999996								
	80	102	0.01133	0.06495	0.01164	167.0	167.0	167.0	0	0	1	-29.999999999999996	29.999999999999996								
	81	37	0.0056	0.04947	0.08192	494.20000000000005	494.20000000000005	494.20000000000005	0	0	1	-29.999999999999996	29.999999999999996								
	81	92	0.00258	0.02243	0.04721	531.5	531.5	531.5	0	0	1	-29.999999999999996	29.999999999999996								
	81	3708	0.00169	0.01576	0.03176	460.20000000000005	460.20000000000005	460.20000000000005	0	0	1	-29.999999999999996	29.999999999999996								
	83	84	0.00028	0.00111	0.0	99999.0	99999.0	99999.0	0	0	1	-29.999999999999996	29.999999999999996								
	83	85	0.00021	0.00111	0.0	99999.0	99999.0	99999.0	0	0	1	-29.999999999999996	29.999999999999996								
	85	80	0.01323	0.052	0.00706	143.6	143.6	143.6	0	0	1	-29.999999999999996	29.999999999999996								
	85	114	0.00671	0.0313	0.01561	139.4	139.4	139.4	0	0	1	-29.999999999999996	29.999999999999996								
	86	142	0.05221	0.26828	0.04396	147.4	147.4	147.4	0	0	1	-29.999999999999996	29.999999999999996								
	86	3214	0.01641	0.06346	0.01157	169.1	169.1	169.1	0	0	1	-29.999999999999996	29.999999999999996								
	86	3467	0.00749	0.04011	0.03024	182.6	182.6	182.6	0	0	1	-29.999999999999996	29.999999999999996								
	87	88	0.00024	0.00107	0.0	99999.0	99999.0	99999.0	0	0	1	-29.999999999999996	29.999999999999996								
	89	87	0.00473	0.02379	0.00664	155.6	155.6	155.6	0	0	1	-29.999999999999996	29.999999999999996								
	89	90	0.00027	0.00103	0.0	99999.0	99999.0	99999.0	0	0	1	-29.999999999999996	29.999999999999996								
	91	94	0.00021	0.00118	0.0	99999.0	99999.0	99999.0	0	0	1	-29.999999999999996	29.999999999999996								
	91	95	0.00025	0.00105	0.0	99999.0	99999.0	99999.0	0	0	1	-29.999999999999996	29.999999999999996								
	92	117	0.00082	0.008	0.14871	418.79999999999995	418.79999999999995	418.79999999999995	0	0	1	-29.999999999999996	29.999999999999996								
	93	87	0.00984	0.03541	0.00713	185.4	185.4	185.4	0	0	1	-29.999999999999996	29.999999999999996								
	97	131	0.01557	0.06201	0.01264	140.6	140.6	140.6	0	0	1	-29.999999999999996	29.999999999999996								
	98	139	0.03132	0.14759	0.02588	145.1	145.1	145.1	0	0	1	-29.999999999999996	29.999999999999996								
	99	97	0.00371	0.02024	0.03524	116.7	116.7	116.7	0	0	1	-29.999999999999996	29.999999999999996								
	99	98	0.01547	0.06318	0.01446	132.0	132.0	132.0	0	0	1	-29.999999999999996	29.999999999999996								
	99	100	0.00022	0.00107	0.0	99999.0	99999.0	99999.0	0	0	1	-29.999999999999996	29.999999999999996								
	101	2549	0.00519	0.02831	0.01511	138.0	138.0	138.0	0	0	1	-29.999999999999996	29.999999999999996								
	102	103	0.00021	0.00119	0.0	99999.0	99999.0	99999.0	0	0	1	-29.999999999999996	29.999999999999996								
	102	128	0.0114	0.0566	0.02173	146.4	146.4	146.4	0	0	1	-29.999999999999996	29.999999999999996								
	102	2549	0.00315	0.01471	0.06134	121.7	121.7	121.7	0	0	1	-29.999999999999996	29.999999999999996								
	104	108	0.00671	0.02956	0.02076	138.2	138.2	138.2	0	0	1	-29.999999999999996	29.999999999999996								
	104	2322	0.02195	0.07919	0.01246	178.0	178.0	178.0	0	0	1	-29.999999999999996	29.999999999999996								
	105	99	0.00684	0.03283	0.02204	155.3	155.3	155.3	0	0	1	-29.999999999999996	29.999999999999996								
	105	106	0.00029	0.00112	0.0	99999.0	99999.0	99999.0	0	0	1	-29.999999999999996	29.999999999999996								
	105	108	0.00297	0.01387	0.00493	177.0	177.0	177.0	0	0	1	-29.999999999999996	29.999999999999996								
	105	111	0.00769	0.02818	0.00392	154.9	154.9	154.9	0	0	1	-29.999999999999996	29.999999999999996								
	107	109	0.00023	0.00102	0.0	99999.0	99999.0	99999.0	0	0	1	-29.999999999999996	29.999999999999996								
	107	110	0.00027	0.00119	0.0	99999.0	99999.0	99999.0	0	0	1	-29.999999999999996	29.999999999999996								
	108	2654	0.018	0.07054	0.01077	168.3	168.3	168.3	0	0	1	-29.999999999999996	29.999999999999996								
	110	2325	0.00335	0.03297	0.07024	530.7	530.7	530.7	0	0	1	-29.999999999999996	29.999999999999996								
	111	108	0.00218	0.01069	0.00394	145.3	145.3	145.3	0	0	1	-29.999999999999996	29.999999999999996								
	111	112	0.00024	0.00106	0.0	99999.0	99999.0	99999.0	0	0	1	-29.999999999999996	29.999999999999996								
	113	111	0.00613	0.03282	0.01025	167.0	167.0	167.0	0	0	1	-29.999999999999996	29.999999999999996								
	113	2654	0.00616	0.0224	0.01354	208.1	208.1	208.1	0	0	1	-29.999999999999996	29.999999999999996								
	113	2654	0.00616	0.0224	0.01354	208.1	208.1	208.1	0	0	1	-29.999999999999996	29.999999999999996								
	114	3707	0.00252	0.0103	0.00212	182.8	182.8	182.8	0	0	1	-29.999999999999996	29.999999999999996								
	115	117	0.00025	0.00106	0.0	99999.0	99999.0	99999.0	0	0	1	-29.999999999999996	29.999999999999996								
	115	118	0.00023	0.00107	0.0	99999.0	99999.0	99999.0	0	0	1	-29.999999999999996	29.999999999999996								
	116	2600	0.00878	0.04711	0.00903	155.6	155.6	155.6	0	0	1	-29.999999999999996	29.999999999999996								
	117	3820	0.00147	0.01211	0.04853	484.0	484.0	484.0	0	0	1	-29.999999999999996	29.999999999999996								
	119	89	0.00606	0.02341	0.00677	132.0	132.0	132.0	0	0	1	-29.999999999999996	29.999999999999996								
	119	120	0.01192	0.04377	0.00859	156.0	156.0	156.0	0	0	1	-29.999999999999996	29.999999999999996								
	120	121	0.00022	0.00119	0.0	99999.0	99999.0	99999.0	0	0	1	-29.999999999999996	29.999999999999996								
	122	67	0.02141	0.07579	0.01161	134.6	134.6	134.6	0	0	1	-29.999999999999996	29.999999999999996								
	122	3115	0.02118	0.09526	0.02574	114.1	114.1	114.1	0	0	1	-29.999999999999996	29.999999999999996								
	123	120	0.02069	0.09672	0.01583	171.4	171.4	171.4	0	0	1	-29.999999999999996	29.999999999999996								
	123	2854	0.01729	0.0893	0.01825	176.5	176.5	176.5	0	0	1	-29.999999999999996	29.999999999999996								
	124	140	0.00896	0.03798	0.01782	159.6	159.6	159.6	0	0	1	-29.999999999999996	29.999999999999996								
	125	113	0.00639	0.02609	0.0044	141.5	141.5	141.5	0	0	1	-29.999999999999996	29.999999999999996								
	125	2654	0.01447	0.06663	0.01138	163.4	163.4	163.4	0	0	1	-29.999999999999996	29.999999999999996								
	126	101	0.01231	0.05904	0.00577	119.8	119.8	119.8	0	0	1	-29.999999999999996	29.999999999999996								
	127	128	0.0002	0.00107	0.0	99999.0	99999.0	99999.0	0	0	1	-29.999999999999996	29.999999999999996								
	128	126	0.00776	0.03456	0.008	156.4	156.4	156.4	0	0	1	-29.999999999999996	29.999999999999996								
	130	132	0.00021	0.00113	0.0	99999.0	99999.0	99999.0	0	0	1	-29.999999999999996	29.999999999999996								
	131	113	0.01007	0.04167	0.00512	168.4	168.4	168.4	0	0	1	-29.999999999999996	29.999999999999996								
	131	124	0.00255	0.01691	0.00464	114.5	114.5	114.5	0	0	1	-29.999999999999996	29.999999999999996								
	132	110	0.00181	0.01653	0.0297	442.8	442.8	442.8	0	0	1	-29.999999999999996	29.999999999999996								
	132	2325	0.00446	0.03681	0.11569	530.9	530.9	530.9	0	0	1	-29.999999999999996	29.999999999999996								
	133	135	0.00026	0.00105	0.0	99999.0	99999.0	99999.0	0	0	1	-29.999999999999996	29.999999999999996								
	134	136	0.00546	0.02959	0.0156	168.4	168.4	168.4	0	0	1	-29.999999999999996	29.999999999999996								
	134	139	0.04495	0.20301	0.01902	160.9	160.9	160.9	0	0	1	-29.999999999999996	29.999999999999996								
	136	96	0.00789	0.03278	0.02792	187.0	187.0	187.0	0	0	1	-29.999999999999996	29.999999999999996								
	137	138	0.00029	0.0012	0.0	99999.0	99999.0	99999.0	0	0	1	-29.999999999999996	29.999999999999996								
	138	136	0.01303	0.04355	0.00744	139.9	139.9	139.9	0	0	1	-29.999999999999996	29.999999999999996								
	138	151	0.02029	0.12645	0.02663	120.30000000000001	120.30000000000001	120.30000000000001	0	0	1	-29.999999999999996	29.999999999999996								
	140	2654	0.01362	0.04387	0.02183	180.8	180.8	180.8	0	0	1	-29.999999999999996	29.999999999999996								
	143	2836	0.00661	0.02417	0.00577	122.39999999999999	122.39999999999999	122.39999999999999	0	0	1	-29.999999999999996	29.999999999999996								
	143	2891	0.00834	0.03944	0.01041	143.9	143.9	143.9	0	0	1	-29.999999999999996	29.999999999999996								
	144	145	0.00023	0.00106	0.0	99999.0	99999.0	99999.0	0	0	1	-29.999999999999996	29.999999999999996								
	144	146	0.00023	0.00113	0.0	99999.0	99999.0	99999.0	0	0	1	-29.999999999999996	29.999999999999996								
	146	2345	0.03921	0.15613	0.03093	213.79999999999998	213.79999999999998	213.79999999999998	0	0	1	-29.999999999999996	29.999999999999996								
	147	128	0.01193	0.0668	0.01607	159.3	159.3	159.3	0	0	1	-29.999999999999996	29.999999999999996								
	147	154	0.01776	0.08669	0.03864	150.8	150.8	150.8	0	0	1	-29.999999999999996	29.999999999999996								
	148	149	0.00029	0.00108	0.0	99999.0	99999.0	99999.0	0	0	1	-29.999999999999996	29.999999999999996								
	150	140	0.02116	0.09676	0.03384	153.8	153.8	153.8	0	0	1	-29.999999999999996	29.999999999999996								
	152	141	0.04591	0.15793	0.01649	170.3	170.3	170.3	0	0	1	-29.999999999999996	29.999999999999996								
	153	86	0.0552	0.20025	0.07716	197.5	197.5	197.5	0	0	1	-29.999999999999996	29.999999999999996								
	153	184	0.07657	0.2233	0.06727	192.1	192.1	192.1	0	0	1	-29.999999999999996	29.999999999999996								
	154	3236	0.02791	0.11272	0.01052	167.9	167.9	167.9	0	0	1	-29.999999999999996	29.999999999999996								
	155	156	0.00022	0.00109	0.0	99999.0	99999.0	99999.0	0	0	1	-29.999999999999996	29.999999999999996								
	156	3148	0.0278	0.10938	0.02745	123.0	123.0	123.0	0	0	1	-29.999999999999996	29.999999999999996								
	157	150	0.02294	0.12637	0.02331	146.7	146.7	146.7	0	0	1	-29.999999999999996	29.999999999999996								
	159	2629	0.02269	0.12466	0.05936	137.5	137.5	137.5	0	0	1	-29.999999999999996	29.999999999999996								
	159	2810	0.01302	0.0714	0.01233	138.8	138.8	138.8	0	0	1	-29.999999999999996	29.999999999999996								
	160	162	0.00021	0.00119	0.0	99999.0	99999.0	99999.0	0	0	1	-29.999999999999996	29.999999999999996								
	160	163	0.00029	0.00101	0.0	99999.0	99999.0	99999.0	0	0	1	-29.999999999999996	29.999999999999996								
	163	2632	0.00311	0.03154	0.09414	540.7	540.7	540.7	0	0	1	-29.999999999999996	29.999999999999996								
	164	159	0.01046	0.05537	0.01178	135.4	135.4	135.4	0	0	1	-29.999999999999996	29.999999999999996								
	164	161	0.00528	0.02644	0.00882	121.30000000000001	121.30000000000001	121.30000000000001	0	0	1	-29.999999999999996	29.999999999999996								
	165	166	0.00029	0.00112	0.0	99999.0	99999.0	99999.0	0	0	1	-29.999999999999996	29.999999999999996								
	165	167	0.00023	0.00118	0.0	99999.0	99999.0	99999.0	0	0	1	-29.999999999999996	29.999999999999996								
	166	170	0.00985	0.03205	0.00466	151.8	151.8	151.8	0	0	1	-29.999999999999996	29.999999999999996								
	168	173	0.00519	0.02571	0.00765	151.5	151.5	151.5	0	0	1	-29.999999999999996	29.999999999999996								
...
];

%%-----  OPF Data  -----%%
%% cost data
%    1    startup    shutdown    n    x1    y1    ...    xn    yn
%    2    startup    shutdown    n    c(n-1)    ...    c0
mpc.gencost = [
	2	0.0	0.0	3	0.0	17.44	-32.94
	2	0.0	0.0	3	0.0	12.88	0.0
	2	0.0	0.0	3	0.0	20.33	-35.95
	2	0.0	0.0	3	0.0	19.24	-31.91
	2	0.0	0.0	3	0.0	16.98	-29.71
	2	0.0	0.0	3	0.0	17.61	-30.63
	2	0.0	0.0	3	0.0	0.0	0.0
	2	0.0	0.0	3	0.0	0.0	0.0
	2	0.0	0.0	3	0.0	0.0	0.0
	2	0.0	0.0	3	0.0	0.0	0.0
	2	0.0	0.0	3	0.0	0.0	0.0
	2	0.0	0.0	3	0.0	0.0	0.0
	2	0.0	0.0	3	0.0	0.0	0.0
	2	0.0	0.0	3	0.0	0.0	0.0
	2	0.0	0.0	3	0.0	0.0	0.0
	2	0.0	0.0	3	0.0	0.0	0.0
	2	0.0	0.0	3	0.0	0.0	0.0
	2	0.0	0.0	3	0.0	0.0	0.0
	2	0.0	0.0	3	0.0	0.0	0.0
	2	0.0	0.0	3	0.0	0.0	0.0
	2	0.0	0.0	3	0.01313	17.51	-2.17
	2	0.0	0.0	3	0.01808	19.24	-2.636
	2	0.0	0.0	3	0.01907	21.0	-2.543
	2	0.0	0.0	3	0.04318	53.980000000000004	-16.29
	2	0.0	0.0	3	0.0	17.65	0.0
	2	0.0	0.0	3	0.0	16.87	-47.58
	2	0.0	0.0	3	0.0	18.42	0.0
	2	0.0	0.0	3	0.01651	16.25	0.0
	2	0.0	0.0	3	0.0	0.0	0.0
	2	0.0	0.0	3	0.0	0.0	0.0
	2	0.0	0.0	3	0.01749	17.64	-1.585
	2	0.0	0.0	3	0.01004	17.36	-1.15
	2	0.0	0.0	3	0.015570000000000002	16.68	-1.611
	2	0.0	0.0	3	0.06886	47.08	-23.04
	2	0.0	0.0	3	0.040130000000000006	51.07	-16.85
	2	0.0	0.0	3	0.0	17.52	-29.3
	2	0.0	0.0	3	0.0	15.58	-25.27
	2	0.0	0.0	3	0.0	19.29	-28.65
	2	0.0	0.0	3	0.0	19.9	0.0
	2	0.0	0.0	3	0.0	15.59	-28.5
	2	0.0	0.0	3	0.0	17.33	0.0
	2	0.0	0.0	3	0.0	16.4	0.0
	2	0.0	0.0	3	0.0	12.85	0.0
	2	0.0	0.0	3	0.0	17.68	0.0
	2	0.0	0.0	3	0.0	15.83	0.0
	2	0.0	0.0	3	0.0	17.2	0.0
	2	0.0	0.0	3	0.0	14.58	0.0
	2	0.0	0.0	3	0.0	12.4	0.0
	2	0.0	0.0	3	0.021660000000000002	16.35	-1.294
	2	0.0	0.0	3	0.013870000000000002	16.15	-1.187
	2	0.0	0.0	3	0.015950000000000002	17.83	-1.461
	2	0.0	0.0	3	0.02265	17.91	-2.061
	2	0.0	0.0	3	0.02035	20.05	-2.561
	2	0.0	0.0	3	0.01401	20.44	-2.129
	2	0.0	0.0	3	0.0	17.03	0.0
	2	0.0	0.0	3	0.0	15.9	0.0
	2	0.0	0.0	3	0.0	16.34	0.0
	2	0.0	0.0	3	0.0	14.27	-4.747
	2	0.0	0.0	3	0.0	0.0	0.0
	2	0.0	0.0	3	0.01283	15.4	0.0
	2	0.0	0.0	3	0.01599	18.46	0.0
	2	0.0	0.0	3	0.01319	15.44	0.0
	2	0.0	0.0	3	0.02074	20.67	-1.665
	2	0.0	0.0	3	0.021410000000000002	18.13	-1.166
	2	0.0	0.0	3	0.06953	30.5	-16.06
	2	0.0	0.0	3	0.0	0.0	0.0
	2	0.0	0.0	3	0.0	0.0	0.0
	2	0.0	0.0	3	0.0	0.0	0.0
	2	0.0	0.0	3	0.0	0.0	0.0
	2	0.0	0.0	3	0.0	0.0	0.0
	2	0.0	0.0	3	0.0	0.0	0.0
	2	0.0	0.0	3	0.0	0.0	0.0
	2	0.0	0.0	3	0.0	16.64	-1.592
	2	0.0	0.0	3	0.0	12.83	-1.557
	2	0.0	0.0	3	0.0	14.35	-1.863
	2	0.0	0.0	3	0.0	15.06	-2.747
	2	0.0	0.0	3	0.0	15.08	-1.709
	2	0.0	0.0	3	0.0	17.09	-1.949
	2	0.0	0.0	3	0.0	15.73	0.0
	2	0.0	0.0	3	0.0	15.42	-2.594
	2	0.0	0.0	3	0.0	14.74	0.0
	2	0.0	0.0	3	0.0	14.77	-1.915
	2	0.0	0.0	3	0.0	15.75	-2.81
	2	0.0	0.0	3	0.0	17.8	-2.441
	2	0.0	0.0	3	0.0	17.17	-12.92
	2	0.0	0.0	3	0.0	14.370000000000001	-1.3
	2	0.0	0.0	3	0.011430000000000001	18.14	-1.747
	2	0.0	0.0	3	0.01922	19.88	-2.606
	2	0.0	0.0	3	0.01631	19.47	-2.139
	2	0.0	0.0	3	0.0	16.26	-22.01
	2	0.0	0.0	3	0.0	17.18	-28.28
	2	0.0	0.0	3	0.0	18.92	-32.33
	2	0.0	0.0	3	0.0	17.98	0.0
	2	0.0	0.0	3	0.0	16.33	-28.05
	2	0.0	0.0	3	0.01139	13.82	0.0
	2	0.0	0.0	3	0.01613	19.25	-1.327
	2	0.0	0.0	3	0.01169	16.62	-1.205
	2	0.0	0.0	3	0.01369	18.98	-2.581
	2	0.0	0.0	3	0.01321	17.97	-2.287
	2	0.0	0.0	3	0.0	16.28	0.0
	2	0.0	0.0	3	0.0	20.42	0.0
	2	0.0	0.0	3	0.0	16.78	-1.067
	2	0.0	0.0	3	0.0	14.8	-1.147
	2	0.0	0.0	3	0.0	13.72	0.0
	2	0.0	0.0	3	0.0	16.4	-38.8
	2	0.0	0.0	3	0.0	19.28	-38.97
	2	0.0	0.0	3	0.0	18.52	-42.21
	2	0.0	0.0	3	0.0	18.98	-44.48
	2	0.0	0.0	3	0.0	20.25	-46.15
	2	0.0	0.0	3	0.0	19.13	0.0
	2	0.0	0.0	3	0.0	16.77	-21.35
	2	0.0	0.0	3	0.0	20.01	-24.79
	2	0.0	0.0	3	0.0	18.29	0.0
	2	0.0	0.0	3	0.0	15.42	-17.62
	2	0.0	0.0	3	0.0	17.11	-5.602
	2	0.0	0.0	3	0.0	0.0	0.0
	2	0.0	0.0	3	0.013520000000000003	20.89	-1.865
	2	0.0	0.0	3	0.01939	17.93	-2.177
	2	0.0	0.0	3	0.01749	19.82	-2.142
	2	0.0	0.0	3	0.0	0.0	0.0
	2	0.0	0.0	3	0.0	0.0	0.0
	2	0.0	0.0	3	0.0	0.0	0.0
	2	0.0	0.0	3	0.009681	16.49	-1.003
	2	0.0	0.0	3	0.01686	21.56	-1.412
	2	0.0	0.0	3	0.01928	20.31	-1.604
	2	0.0	0.0	3	0.0137	18.47	-1.238
	2	0.0	0.0	3	0.01195	20.25	-1.199
	2	0.0	0.0	3	0.014340000000000002	20.57	-1.9
	2	0.0	0.0	3	0.01575	22.8	-1.969
	2	0.0	0.0	3	0.011050000000000003	17.91	-1.429
	2	0.0	0.0	3	0.0	0.0	0.0
	2	0.0	0.0	3	0.014750000000000001	17.59	-1.185
	2	0.0	0.0	3	0.02007	19.62	-1.071
	2	0.0	0.0	3	0.0	0.0	0.0
	2	0.0	0.0	3	0.0	0.0	0.0
	2	0.0	0.0	3	0.0	16.65	0.0
	2	0.0	0.0	3	0.0	18.3	-11.26
	2	0.0	0.0	3	0.0	15.96	-9.874
	2	0.0	0.0	3	0.0	17.49	0.0
	2	0.0	0.0	3	0.03064	32.13	-3.031
	2	0.0	0.0	3	0.04609	32.28	-3.604
	2	0.0	0.0	3	0.0	12.99	-1.996
	2	0.0	0.0	3	0.0	16.37	-2.346
	2	0.0	0.0	3	0.0	17.01	0.0
	2	0.0	0.0	3	0.0	14.44	-2.548
	2	0.0	0.0	3	0.0	18.13	0.0
	2	0.0	0.0	3	0.0	16.82	0.0
	2	0.0	0.0	3	0.01406	16.76	-1.007
	2	0.0	0.0	3	0.0	17.23	0.0
	2	0.0	0.0	3	0.015030000000000002	17.06	0.0
	2	0.0	0.0	3	0.01735	17.85	-1.04
	2	0.0	0.0	3	0.001101	9.512	0.0
	2	0.0	0.0	3	0.001697	8.369	0.0
	2	0.0	0.0	3	0.0	17.04	-17.28
	2	0.0	0.0	3	0.0	14.97	0.0
	2	0.0	0.0	3	0.0	16.94	-16.24
	2	0.0	0.0	3	0.0	16.96	-19.71
	2	0.0	0.0	3	0.0	18.78	0.0
	2	0.0	0.0	3	0.0	16.37	-20.76
	2	0.0	0.0	3	0.0	0.0	0.0
	2	0.0	0.0	3	0.0	0.0	0.0
	2	0.0	0.0	3	0.009473	18.91	-2.008
	2	0.0	0.0	3	0.01922	19.04	-2.59
	2	0.0	0.0	3	0.0	0.0	0.0
	2	0.0	0.0	3	0.0	0.0	0.0
	2	0.0	0.0	3	0.0	0.0	0.0
	2	0.0	0.0	3	0.0	17.58	-1.317
	2	0.0	0.0	3	0.0	18.38	-1.549
	2	0.0	0.0	3	0.0	0.0	0.0
	2	0.0	0.0	3	0.01606	17.54	-3.054
	2	0.0	0.0	3	0.01351	24.01	-3.379
	2	0.0	0.0	3	0.01913	18.86	-3.463
	2	0.0	0.0	3	0.0	0.0	0.0
	2	0.0	0.0	3	0.0	0.0	0.0
	2	0.0	0.0	3	0.05754	50.07	-20.31
	2	0.0	0.0	3	0.07299	38.15	-18.5
	2	0.0	0.0	3	0.06688	45.38	-20.76
	2	0.0	0.0	3	0.0	0.0	0.0
	2	0.0	0.0	3	0.0	0.0	0.0
	2	0.0	0.0	3	0.0	0.0	0.0
	2	0.0	0.0	3	0.0	0.0	0.0
	2	0.0	0.0	3	0.0	0.0	0.0
	2	0.0	0.0	3	0.0	0.0	0.0
	2	0.0	0.0	3	0.0	0.0	0.0
	2	0.0	0.0	3	0.01425	17.0	-1.013
	2	0.0	0.0	3	0.01065	15.64	0.0
	2	0.0	0.0	3	0.018500000000000003	16.19	-1.079
	2	0.0	0.0	3	0.0	0.0	0.0
	2	0.0	0.0	3	0.0	0.0	0.0
	2	0.0	0.0	3	0.0	0.0	0.0
	2	0.0	0.0	3	0.013340000000000001	21.02	-1.54
	2	0.0	0.0	3	0.013790000000000002	17.62	-1.454
	2	0.0	0.0	3	0.02051	17.04	-1.241
	2	0.0	0.0	3	0.020060000000000005	18.4	-1.395
	2	0.0	0.0	3	0.01162	20.59	-1.368
	2	0.0	0.0	3	0.017260000000000005	18.57	-1.793
	2	0.0	0.0	3	0.0	0.0	0.0
	2	0.0	0.0	3	0.0	0.0	0.0
	2	0.0	0.0	3	0.0	16.31	-3.822
	2	0.0	0.0	3	0.0	18.55	0.0
...
];

